.subckt NMOS_30_0p5_30_diff4x_2 SD1L SD2L GL SD1R SD2R GR SUB
X0 SD2L.t119 GL SD1L.t47 SUB sky130_fd_pr__nfet_g5v0d10v5 ad=0p pd=0u as=0p ps=0u w=3e+07u l=500000u
X1 SD1L.t33 GL SD2L.t118 SUB sky130_fd_pr__nfet_g5v0d10v5 ad=0p pd=0u as=0p ps=0u w=3e+07u l=500000u
X2 SD2L.t117 GL SD1L.t115 SUB sky130_fd_pr__nfet_g5v0d10v5 ad=0p pd=0u as=0p ps=0u w=3e+07u l=500000u
X3 SD2L.t116 GL SD1L.t22 SUB sky130_fd_pr__nfet_g5v0d10v5 ad=0p pd=0u as=0p ps=0u w=3e+07u l=500000u
X4 SD2R.t119 GR SD1R.t56 SUB sky130_fd_pr__nfet_g5v0d10v5 ad=0p pd=0u as=0p ps=0u w=3e+07u l=500000u
X5 SD1L.t29 GL SD2L.t115 SUB sky130_fd_pr__nfet_g5v0d10v5 ad=0p pd=0u as=0p ps=0u w=3e+07u l=500000u
X6 SD1R.t6 GR SD2R.t118 SUB sky130_fd_pr__nfet_g5v0d10v5 ad=0p pd=0u as=0p ps=0u w=3e+07u l=500000u
X7 SD1R.t48 GR SD2R.t117 SUB sky130_fd_pr__nfet_g5v0d10v5 ad=0p pd=0u as=0p ps=0u w=3e+07u l=500000u
X8 SD2L.t114 GL SD1L.t68 SUB sky130_fd_pr__nfet_g5v0d10v5 ad=0p pd=0u as=0p ps=0u w=3e+07u l=500000u
X9 SD1L.t46 GL SD2L.t113 SUB sky130_fd_pr__nfet_g5v0d10v5 ad=0p pd=0u as=0p ps=0u w=3e+07u l=500000u
X10 SD2R.t116 GR SD1R.t89 SUB sky130_fd_pr__nfet_g5v0d10v5 ad=0p pd=0u as=0p ps=0u w=3e+07u l=500000u
X11 SD1L.t113 GL SD2L.t112 SUB sky130_fd_pr__nfet_g5v0d10v5 ad=0p pd=0u as=0p ps=0u w=3e+07u l=500000u
X12 SD1R.t72 GR SD2R.t115 SUB sky130_fd_pr__nfet_g5v0d10v5 ad=0p pd=0u as=0p ps=0u w=3e+07u l=500000u
X13 SD1L.t32 GL SD2L.t111 SUB sky130_fd_pr__nfet_g5v0d10v5 ad=0p pd=0u as=0p ps=0u w=3e+07u l=500000u
X14 SD1L.t27 GL SD2L.t110 SUB sky130_fd_pr__nfet_g5v0d10v5 ad=0p pd=0u as=0p ps=0u w=3e+07u l=500000u
X15 SD2R.t114 GR SD1R.t93 SUB sky130_fd_pr__nfet_g5v0d10v5 ad=0p pd=0u as=0p ps=0u w=3e+07u l=500000u
X16 SD1L.t100 GL SD2L.t109 SUB sky130_fd_pr__nfet_g5v0d10v5 ad=0p pd=0u as=0p ps=0u w=3e+07u l=500000u
X17 SD2R.t113 GR SD1R.t90 SUB sky130_fd_pr__nfet_g5v0d10v5 ad=0p pd=0u as=0p ps=0u w=3e+07u l=500000u
X18 SD2R.t112 GR SD1R.t70 SUB sky130_fd_pr__nfet_g5v0d10v5 ad=0p pd=0u as=0p ps=0u w=3e+07u l=500000u
X19 SD1L.t19 GL SD2L.t108 SUB sky130_fd_pr__nfet_g5v0d10v5 ad=0p pd=0u as=0p ps=0u w=3e+07u l=500000u
X20 SD1L.t112 GL SD2L.t107 SUB sky130_fd_pr__nfet_g5v0d10v5 ad=0p pd=0u as=0p ps=0u w=3e+07u l=500000u
X21 SD2R.t111 GR SD1R.t71 SUB sky130_fd_pr__nfet_g5v0d10v5 ad=0p pd=0u as=0p ps=0u w=3e+07u l=500000u
X22 SD2L.t106 GL SD1L.t17 SUB sky130_fd_pr__nfet_g5v0d10v5 ad=0p pd=0u as=0p ps=0u w=3e+07u l=500000u
X23 SD1R.t29 GR SD2R.t110 SUB sky130_fd_pr__nfet_g5v0d10v5 ad=0p pd=0u as=0p ps=0u w=3e+07u l=500000u
X24 SD1L.t110 GL SD2L.t105 SUB sky130_fd_pr__nfet_g5v0d10v5 ad=0p pd=0u as=0p ps=0u w=3e+07u l=500000u
X25 SD2R.t109 GR SD1R.t7 SUB sky130_fd_pr__nfet_g5v0d10v5 ad=0p pd=0u as=0p ps=0u w=3e+07u l=500000u
X26 SD2L.t104 GL SD1L.t108 SUB sky130_fd_pr__nfet_g5v0d10v5 ad=0p pd=0u as=0p ps=0u w=3e+07u l=500000u
X27 SD1R.t2 GR SD2R.t108 SUB sky130_fd_pr__nfet_g5v0d10v5 ad=0p pd=0u as=0p ps=0u w=3e+07u l=500000u
X28 SD1L.t36 GL SD2L.t103 SUB sky130_fd_pr__nfet_g5v0d10v5 ad=0p pd=0u as=0p ps=0u w=3e+07u l=500000u
X29 SD2L.t102 GL SD1L.t31 SUB sky130_fd_pr__nfet_g5v0d10v5 ad=0p pd=0u as=0p ps=0u w=3e+07u l=500000u
X30 SD1R.t14 GR SD2R.t107 SUB sky130_fd_pr__nfet_g5v0d10v5 ad=0p pd=0u as=0p ps=0u w=3e+07u l=500000u
X31 SD2R.t106 GR SD1R.t99 SUB sky130_fd_pr__nfet_g5v0d10v5 ad=0p pd=0u as=0p ps=0u w=3e+07u l=500000u
X32 SD2L.t101 GL SD1L.t111 SUB sky130_fd_pr__nfet_g5v0d10v5 ad=0p pd=0u as=0p ps=0u w=3e+07u l=500000u
X33 SD2R.t105 GR SD1R.t57 SUB sky130_fd_pr__nfet_g5v0d10v5 ad=0p pd=0u as=0p ps=0u w=3e+07u l=500000u
X34 SD2L.t100 GL SD1L.t34 SUB sky130_fd_pr__nfet_g5v0d10v5 ad=0p pd=0u as=0p ps=0u w=3e+07u l=500000u
X35 SD1R.t52 GR SD2R.t104 SUB sky130_fd_pr__nfet_g5v0d10v5 ad=0p pd=0u as=0p ps=0u w=3e+07u l=500000u
X36 SD2L.t99 GL SD1L.t35 SUB sky130_fd_pr__nfet_g5v0d10v5 ad=0p pd=0u as=0p ps=0u w=3e+07u l=500000u
X37 SD1R.t105 GR SD2R.t103 SUB sky130_fd_pr__nfet_g5v0d10v5 ad=0p pd=0u as=0p ps=0u w=3e+07u l=500000u
X38 SD2R.t102 GR SD1R.t104 SUB sky130_fd_pr__nfet_g5v0d10v5 ad=0p pd=0u as=0p ps=0u w=3e+07u l=500000u
X39 SD1L.t23 GL SD2L.t98 SUB sky130_fd_pr__nfet_g5v0d10v5 ad=0p pd=0u as=0p ps=0u w=3e+07u l=500000u
X40 SD1L.t93 GL SD2L.t97 SUB sky130_fd_pr__nfet_g5v0d10v5 ad=0p pd=0u as=0p ps=0u w=3e+07u l=500000u
X41 SD2R.t101 GR SD1R.t19 SUB sky130_fd_pr__nfet_g5v0d10v5 ad=0p pd=0u as=0p ps=0u w=3e+07u l=500000u
X42 SD1L.t28 GL SD2L.t96 SUB sky130_fd_pr__nfet_g5v0d10v5 ad=0p pd=0u as=0p ps=0u w=3e+07u l=500000u
X43 SD1L.t69 GL SD2L.t95 SUB sky130_fd_pr__nfet_g5v0d10v5 ad=0p pd=0u as=0p ps=0u w=3e+07u l=500000u
X44 SD2L.t94 GL SD1L.t38 SUB sky130_fd_pr__nfet_g5v0d10v5 ad=0p pd=0u as=0p ps=0u w=3e+07u l=500000u
X45 SD2R.t100 GR SD1R.t34 SUB sky130_fd_pr__nfet_g5v0d10v5 ad=0p pd=0u as=0p ps=0u w=3e+07u l=500000u
X46 SD2L.t93 GL SD1L.t73 SUB sky130_fd_pr__nfet_g5v0d10v5 ad=0p pd=0u as=0p ps=0u w=3e+07u l=500000u
X47 SD1R.t41 GR SD2R.t99 SUB sky130_fd_pr__nfet_g5v0d10v5 ad=0p pd=0u as=0p ps=0u w=3e+07u l=500000u
X48 SD1R.t30 GR SD2R.t98 SUB sky130_fd_pr__nfet_g5v0d10v5 ad=0p pd=0u as=0p ps=0u w=3e+07u l=500000u
X49 SD1L.t99 GL SD2L.t92 SUB sky130_fd_pr__nfet_g5v0d10v5 ad=0p pd=0u as=0p ps=0u w=3e+07u l=500000u
X50 SD2L.t91 GL SD1L.t50 SUB sky130_fd_pr__nfet_g5v0d10v5 ad=0p pd=0u as=0p ps=0u w=3e+07u l=500000u
X51 SD1L.t98 GL SD2L.t90 SUB sky130_fd_pr__nfet_g5v0d10v5 ad=0p pd=0u as=0p ps=0u w=3e+07u l=500000u
X52 SD2R.t97 GR SD1R.t58 SUB sky130_fd_pr__nfet_g5v0d10v5 ad=0p pd=0u as=0p ps=0u w=3e+07u l=500000u
X53 SD1L.t13 GL SD2L.t89 SUB sky130_fd_pr__nfet_g5v0d10v5 ad=0p pd=0u as=0p ps=0u w=3e+07u l=500000u
X54 SD1L.t30 GL SD2L.t88 SUB sky130_fd_pr__nfet_g5v0d10v5 ad=0p pd=0u as=0p ps=0u w=3e+07u l=500000u
X55 SD2L.t87 GL SD1L.t18 SUB sky130_fd_pr__nfet_g5v0d10v5 ad=0p pd=0u as=0p ps=0u w=3e+07u l=500000u
X56 SD2L.t86 GL SD1L.t37 SUB sky130_fd_pr__nfet_g5v0d10v5 ad=0p pd=0u as=0p ps=0u w=3e+07u l=500000u
X57 SD2R.t96 GR SD1R.t73 SUB sky130_fd_pr__nfet_g5v0d10v5 ad=0p pd=0u as=0p ps=0u w=3e+07u l=500000u
X58 SD2L.t85 GL SD1L.t5 SUB sky130_fd_pr__nfet_g5v0d10v5 ad=0p pd=0u as=0p ps=0u w=3e+07u l=500000u
X59 SD2L.t84 GL SD1L.t8 SUB sky130_fd_pr__nfet_g5v0d10v5 ad=0p pd=0u as=0p ps=0u w=3e+07u l=500000u
X60 SD1L.t105 GL SD2L.t83 SUB sky130_fd_pr__nfet_g5v0d10v5 ad=0p pd=0u as=0p ps=0u w=3e+07u l=500000u
X61 SD1R.t94 GR SD2R.t95 SUB sky130_fd_pr__nfet_g5v0d10v5 ad=0p pd=0u as=0p ps=0u w=3e+07u l=500000u
X62 SD1R.t16 GR SD2R.t94 SUB sky130_fd_pr__nfet_g5v0d10v5 ad=0p pd=0u as=0p ps=0u w=3e+07u l=500000u
X63 SD2R.t93 GR SD1R.t49 SUB sky130_fd_pr__nfet_g5v0d10v5 ad=0p pd=0u as=0p ps=0u w=3e+07u l=500000u
X64 SD1R.t95 GR SD2R.t92 SUB sky130_fd_pr__nfet_g5v0d10v5 ad=0p pd=0u as=0p ps=0u w=3e+07u l=500000u
X65 SD2R.t91 GR SD1R.t84 SUB sky130_fd_pr__nfet_g5v0d10v5 ad=0p pd=0u as=0p ps=0u w=3e+07u l=500000u
X66 SD2R.t90 GR SD1R.t85 SUB sky130_fd_pr__nfet_g5v0d10v5 ad=0p pd=0u as=0p ps=0u w=3e+07u l=500000u
X67 SD1L.t51 GL SD2L.t82 SUB sky130_fd_pr__nfet_g5v0d10v5 ad=0p pd=0u as=0p ps=0u w=3e+07u l=500000u
X68 SD2R.t89 GR SD1R.t112 SUB sky130_fd_pr__nfet_g5v0d10v5 ad=0p pd=0u as=0p ps=0u w=3e+07u l=500000u
X69 SD1R.t74 GR SD2R.t88 SUB sky130_fd_pr__nfet_g5v0d10v5 ad=0p pd=0u as=0p ps=0u w=3e+07u l=500000u
X70 SD2R.t87 GR SD1R.t82 SUB sky130_fd_pr__nfet_g5v0d10v5 ad=0p pd=0u as=0p ps=0u w=3e+07u l=500000u
X71 SD2L.t81 GL SD1L.t52 SUB sky130_fd_pr__nfet_g5v0d10v5 ad=0p pd=0u as=0p ps=0u w=3e+07u l=500000u
X72 SD1R.t33 GR SD2R.t86 SUB sky130_fd_pr__nfet_g5v0d10v5 ad=0p pd=0u as=0p ps=0u w=3e+07u l=500000u
X73 SD1L.t53 GL SD2L.t80 SUB sky130_fd_pr__nfet_g5v0d10v5 ad=0p pd=0u as=0p ps=0u w=3e+07u l=500000u
X74 SD2L.t79 GL SD1L.t54 SUB sky130_fd_pr__nfet_g5v0d10v5 ad=0p pd=0u as=0p ps=0u w=3e+07u l=500000u
X75 SD2R.t85 GR SD1R.t83 SUB sky130_fd_pr__nfet_g5v0d10v5 ad=0p pd=0u as=0p ps=0u w=3e+07u l=500000u
X76 SD2R.t84 GR SD1R.t0 SUB sky130_fd_pr__nfet_g5v0d10v5 ad=0p pd=0u as=0p ps=0u w=3e+07u l=500000u
X77 SD1L.t55 GL SD2L.t78 SUB sky130_fd_pr__nfet_g5v0d10v5 ad=0p pd=0u as=0p ps=0u w=3e+07u l=500000u
X78 SD2L.t77 GL SD1L.t56 SUB sky130_fd_pr__nfet_g5v0d10v5 ad=0p pd=0u as=0p ps=0u w=3e+07u l=500000u
X79 SD2R.t83 GR SD1R.t86 SUB sky130_fd_pr__nfet_g5v0d10v5 ad=0p pd=0u as=0p ps=0u w=3e+07u l=500000u
X80 SD2R.t82 GR SD1R.t8 SUB sky130_fd_pr__nfet_g5v0d10v5 ad=0p pd=0u as=0p ps=0u w=3e+07u l=500000u
X81 SD1R.t1 GR SD2R.t81 SUB sky130_fd_pr__nfet_g5v0d10v5 ad=0p pd=0u as=0p ps=0u w=3e+07u l=500000u
X82 SD2R.t80 GR SD1R.t9 SUB sky130_fd_pr__nfet_g5v0d10v5 ad=0p pd=0u as=0p ps=0u w=3e+07u l=500000u
X83 SD1L.t57 GL SD2L.t76 SUB sky130_fd_pr__nfet_g5v0d10v5 ad=0p pd=0u as=0p ps=0u w=3e+07u l=500000u
X84 SD1R.t113 GR SD2R.t79 SUB sky130_fd_pr__nfet_g5v0d10v5 ad=0p pd=0u as=0p ps=0u w=3e+07u l=500000u
X85 SD2L.t75 GL SD1L.t58 SUB sky130_fd_pr__nfet_g5v0d10v5 ad=0p pd=0u as=0p ps=0u w=3e+07u l=500000u
X86 SD2R.t78 GR SD1R.t75 SUB sky130_fd_pr__nfet_g5v0d10v5 ad=0p pd=0u as=0p ps=0u w=3e+07u l=500000u
X87 SD2L.t74 GL SD1L.t59 SUB sky130_fd_pr__nfet_g5v0d10v5 ad=0p pd=0u as=0p ps=0u w=3e+07u l=500000u
X88 SD2R.t77 GR SD1R.t10 SUB sky130_fd_pr__nfet_g5v0d10v5 ad=0p pd=0u as=0p ps=0u w=3e+07u l=500000u
X89 SD1L.t60 GL SD2L.t73 SUB sky130_fd_pr__nfet_g5v0d10v5 ad=0p pd=0u as=0p ps=0u w=3e+07u l=500000u
X90 SD2R.t76 GR SD1R.t5 SUB sky130_fd_pr__nfet_g5v0d10v5 ad=0p pd=0u as=0p ps=0u w=3e+07u l=500000u
X91 SD2R.t75 GR SD1R.t96 SUB sky130_fd_pr__nfet_g5v0d10v5 ad=0p pd=0u as=0p ps=0u w=3e+07u l=500000u
X92 SD1L.t61 GL SD2L.t72 SUB sky130_fd_pr__nfet_g5v0d10v5 ad=0p pd=0u as=0p ps=0u w=3e+07u l=500000u
X93 SD1R.t59 GR SD2R.t74 SUB sky130_fd_pr__nfet_g5v0d10v5 ad=0p pd=0u as=0p ps=0u w=3e+07u l=500000u
X94 SD2L.t71 GL SD1L.t62 SUB sky130_fd_pr__nfet_g5v0d10v5 ad=0p pd=0u as=0p ps=0u w=3e+07u l=500000u
X95 SD1R.t53 GR SD2R.t73 SUB sky130_fd_pr__nfet_g5v0d10v5 ad=0p pd=0u as=0p ps=0u w=3e+07u l=500000u
X96 SD1R.t35 GR SD2R.t72 SUB sky130_fd_pr__nfet_g5v0d10v5 ad=0p pd=0u as=0p ps=0u w=3e+07u l=500000u
X97 SD2R.t71 GR SD1R.t114 SUB sky130_fd_pr__nfet_g5v0d10v5 ad=0p pd=0u as=0p ps=0u w=3e+07u l=500000u
X98 SD2R.t70 GR SD1R.t42 SUB sky130_fd_pr__nfet_g5v0d10v5 ad=0p pd=0u as=0p ps=0u w=3e+07u l=500000u
X99 SD2L.t70 GL SD1L.t63 SUB sky130_fd_pr__nfet_g5v0d10v5 ad=0p pd=0u as=0p ps=0u w=3e+07u l=500000u
X100 SD2L.t69 GL SD1L.t64 SUB sky130_fd_pr__nfet_g5v0d10v5 ad=0p pd=0u as=0p ps=0u w=3e+07u l=500000u
X101 SD1R.t76 GR SD2R.t69 SUB sky130_fd_pr__nfet_g5v0d10v5 ad=0p pd=0u as=0p ps=0u w=3e+07u l=500000u
X102 SD2L.t68 GL SD1L.t65 SUB sky130_fd_pr__nfet_g5v0d10v5 ad=0p pd=0u as=0p ps=0u w=3e+07u l=500000u
X103 SD2R.t68 GR SD1R.t97 SUB sky130_fd_pr__nfet_g5v0d10v5 ad=0p pd=0u as=0p ps=0u w=3e+07u l=500000u
X104 SD2R.t67 GR SD1R.t60 SUB sky130_fd_pr__nfet_g5v0d10v5 ad=0p pd=0u as=0p ps=0u w=3e+07u l=500000u
X105 SD2L.t67 GL SD1L.t66 SUB sky130_fd_pr__nfet_g5v0d10v5 ad=0p pd=0u as=0p ps=0u w=3e+07u l=500000u
X106 SD2L.t66 GL SD1L.t67 SUB sky130_fd_pr__nfet_g5v0d10v5 ad=0p pd=0u as=0p ps=0u w=3e+07u l=500000u
X107 SD1R.t54 GR SD2R.t66 SUB sky130_fd_pr__nfet_g5v0d10v5 ad=0p pd=0u as=0p ps=0u w=3e+07u l=500000u
X108 SD2L.t65 GL SD1L.t72 SUB sky130_fd_pr__nfet_g5v0d10v5 ad=0p pd=0u as=0p ps=0u w=3e+07u l=500000u
X109 SD2L.t64 GL SD1L.t0 SUB sky130_fd_pr__nfet_g5v0d10v5 ad=0p pd=0u as=0p ps=0u w=3e+07u l=500000u
X110 SD1R.t106 GR SD2R.t65 SUB sky130_fd_pr__nfet_g5v0d10v5 ad=0p pd=0u as=0p ps=0u w=3e+07u l=500000u
X111 SD1R.t36 GR SD2R.t64 SUB sky130_fd_pr__nfet_g5v0d10v5 ad=0p pd=0u as=0p ps=0u w=3e+07u l=500000u
X112 SD2L.t63 GL SD1L.t1 SUB sky130_fd_pr__nfet_g5v0d10v5 ad=0p pd=0u as=0p ps=0u w=3e+07u l=500000u
X113 SD1L.t6 GL SD2L.t62 SUB sky130_fd_pr__nfet_g5v0d10v5 ad=0p pd=0u as=0p ps=0u w=3e+07u l=500000u
X114 SD2R.t63 GR SD1R.t115 SUB sky130_fd_pr__nfet_g5v0d10v5 ad=0p pd=0u as=0p ps=0u w=3e+07u l=500000u
X115 SD1R.t43 GR SD2R.t62 SUB sky130_fd_pr__nfet_g5v0d10v5 ad=0p pd=0u as=0p ps=0u w=3e+07u l=500000u
X116 SD2R.t61 GR SD1R.t77 SUB sky130_fd_pr__nfet_g5v0d10v5 ad=0p pd=0u as=0p ps=0u w=3e+07u l=500000u
X117 SD1L.t70 GL SD2L.t61 SUB sky130_fd_pr__nfet_g5v0d10v5 ad=0p pd=0u as=0p ps=0u w=3e+07u l=500000u
X118 SD1L.t20 GL SD2L.t60 SUB sky130_fd_pr__nfet_g5v0d10v5 ad=0p pd=0u as=0p ps=0u w=3e+07u l=500000u
X119 SD2R.t60 GR SD1R.t98 SUB sky130_fd_pr__nfet_g5v0d10v5 ad=0p pd=0u as=0p ps=0u w=3e+07u l=500000u
X120 SD1L.t71 GL SD2L.t59 SUB sky130_fd_pr__nfet_g5v0d10v5 ad=0p pd=0u as=0p ps=0u w=3e+07u l=500000u
X121 SD1L.t21 GL SD2L.t58 SUB sky130_fd_pr__nfet_g5v0d10v5 ad=0p pd=0u as=0p ps=0u w=3e+07u l=500000u
X122 SD1R.t61 GR SD2R.t59 SUB sky130_fd_pr__nfet_g5v0d10v5 ad=0p pd=0u as=0p ps=0u w=3e+07u l=500000u
X123 SD2L.t57 GL SD1L.t7 SUB sky130_fd_pr__nfet_g5v0d10v5 ad=0p pd=0u as=0p ps=0u w=3e+07u l=500000u
X124 SD1L.t114 GL SD2L.t56 SUB sky130_fd_pr__nfet_g5v0d10v5 ad=0p pd=0u as=0p ps=0u w=3e+07u l=500000u
X125 SD2R.t58 GR SD1R.t55 SUB sky130_fd_pr__nfet_g5v0d10v5 ad=0p pd=0u as=0p ps=0u w=3e+07u l=500000u
X126 SD2R.t57 GR SD1R.t107 SUB sky130_fd_pr__nfet_g5v0d10v5 ad=0p pd=0u as=0p ps=0u w=3e+07u l=500000u
X127 SD2L.t55 GL SD1L.t116 SUB sky130_fd_pr__nfet_g5v0d10v5 ad=0p pd=0u as=0p ps=0u w=3e+07u l=500000u
X128 SD1L.t118 GL SD2L.t54 SUB sky130_fd_pr__nfet_g5v0d10v5 ad=0p pd=0u as=0p ps=0u w=3e+07u l=500000u
X129 SD2L.t53 GL SD1L.t109 SUB sky130_fd_pr__nfet_g5v0d10v5 ad=0p pd=0u as=0p ps=0u w=3e+07u l=500000u
X130 SD2L.t52 GL SD1L.t49 SUB sky130_fd_pr__nfet_g5v0d10v5 ad=0p pd=0u as=0p ps=0u w=3e+07u l=500000u
X131 SD2R.t56 GR SD1R.t62 SUB sky130_fd_pr__nfet_g5v0d10v5 ad=0p pd=0u as=0p ps=0u w=3e+07u l=500000u
X132 SD2L.t51 GL SD1L.t117 SUB sky130_fd_pr__nfet_g5v0d10v5 ad=0p pd=0u as=0p ps=0u w=3e+07u l=500000u
X133 SD1R.t37 GR SD2R.t55 SUB sky130_fd_pr__nfet_g5v0d10v5 ad=0p pd=0u as=0p ps=0u w=3e+07u l=500000u
X134 SD2L.t50 GL SD1L.t106 SUB sky130_fd_pr__nfet_g5v0d10v5 ad=0p pd=0u as=0p ps=0u w=3e+07u l=500000u
X135 SD1L.t74 GL SD2L.t49 SUB sky130_fd_pr__nfet_g5v0d10v5 ad=0p pd=0u as=0p ps=0u w=3e+07u l=500000u
X136 SD2L.t48 GL SD1L.t75 SUB sky130_fd_pr__nfet_g5v0d10v5 ad=0p pd=0u as=0p ps=0u w=3e+07u l=500000u
X137 SD2R.t54 GR SD1R.t116 SUB sky130_fd_pr__nfet_g5v0d10v5 ad=0p pd=0u as=0p ps=0u w=3e+07u l=500000u
X138 SD1R.t44 GR SD2R.t53 SUB sky130_fd_pr__nfet_g5v0d10v5 ad=0p pd=0u as=0p ps=0u w=3e+07u l=500000u
X139 SD1L.t76 GL SD2L.t47 SUB sky130_fd_pr__nfet_g5v0d10v5 ad=0p pd=0u as=0p ps=0u w=3e+07u l=500000u
X140 SD2L.t46 GL SD1L.t77 SUB sky130_fd_pr__nfet_g5v0d10v5 ad=0p pd=0u as=0p ps=0u w=3e+07u l=500000u
X141 SD2R.t52 GR SD1R.t78 SUB sky130_fd_pr__nfet_g5v0d10v5 ad=0p pd=0u as=0p ps=0u w=3e+07u l=500000u
X142 SD1L.t78 GL SD2L.t45 SUB sky130_fd_pr__nfet_g5v0d10v5 ad=0p pd=0u as=0p ps=0u w=3e+07u l=500000u
X143 SD1R.t100 GR SD2R.t51 SUB sky130_fd_pr__nfet_g5v0d10v5 ad=0p pd=0u as=0p ps=0u w=3e+07u l=500000u
X144 SD2L.t44 GL SD1L.t79 SUB sky130_fd_pr__nfet_g5v0d10v5 ad=0p pd=0u as=0p ps=0u w=3e+07u l=500000u
X145 SD1R.t63 GR SD2R.t50 SUB sky130_fd_pr__nfet_g5v0d10v5 ad=0p pd=0u as=0p ps=0u w=3e+07u l=500000u
X146 SD1R.t108 GR SD2R.t49 SUB sky130_fd_pr__nfet_g5v0d10v5 ad=0p pd=0u as=0p ps=0u w=3e+07u l=500000u
X147 SD1L.t2 GL SD2L.t43 SUB sky130_fd_pr__nfet_g5v0d10v5 ad=0p pd=0u as=0p ps=0u w=3e+07u l=500000u
X148 SD2L.t42 GL SD1L.t80 SUB sky130_fd_pr__nfet_g5v0d10v5 ad=0p pd=0u as=0p ps=0u w=3e+07u l=500000u
X149 SD1L.t81 GL SD2L.t41 SUB sky130_fd_pr__nfet_g5v0d10v5 ad=0p pd=0u as=0p ps=0u w=3e+07u l=500000u
X150 SD1L.t82 GL SD2L.t40 SUB sky130_fd_pr__nfet_g5v0d10v5 ad=0p pd=0u as=0p ps=0u w=3e+07u l=500000u
X151 SD1L.t83 GL SD2L.t39 SUB sky130_fd_pr__nfet_g5v0d10v5 ad=0p pd=0u as=0p ps=0u w=3e+07u l=500000u
X152 SD2R.t48 GR SD1R.t20 SUB sky130_fd_pr__nfet_g5v0d10v5 ad=0p pd=0u as=0p ps=0u w=3e+07u l=500000u
X153 SD1L.t84 GL SD2L.t38 SUB sky130_fd_pr__nfet_g5v0d10v5 ad=0p pd=0u as=0p ps=0u w=3e+07u l=500000u
X154 SD2R.t47 GR SD1R.t32 SUB sky130_fd_pr__nfet_g5v0d10v5 ad=0p pd=0u as=0p ps=0u w=3e+07u l=500000u
X155 SD2L.t37 GL SD1L.t85 SUB sky130_fd_pr__nfet_g5v0d10v5 ad=0p pd=0u as=0p ps=0u w=3e+07u l=500000u
X156 SD2R.t46 GR SD1R.t25 SUB sky130_fd_pr__nfet_g5v0d10v5 ad=0p pd=0u as=0p ps=0u w=3e+07u l=500000u
X157 SD1R.t11 GR SD2R.t45 SUB sky130_fd_pr__nfet_g5v0d10v5 ad=0p pd=0u as=0p ps=0u w=3e+07u l=500000u
X158 SD2L.t36 GL SD1L.t86 SUB sky130_fd_pr__nfet_g5v0d10v5 ad=0p pd=0u as=0p ps=0u w=3e+07u l=500000u
X159 SD1R.t91 GR SD2R.t44 SUB sky130_fd_pr__nfet_g5v0d10v5 ad=0p pd=0u as=0p ps=0u w=3e+07u l=500000u
X160 SD2L.t35 GL SD1L.t87 SUB sky130_fd_pr__nfet_g5v0d10v5 ad=0p pd=0u as=0p ps=0u w=3e+07u l=500000u
X161 SD1R.t3 GR SD2R.t43 SUB sky130_fd_pr__nfet_g5v0d10v5 ad=0p pd=0u as=0p ps=0u w=3e+07u l=500000u
X162 SD2L.t34 GL SD1L.t88 SUB sky130_fd_pr__nfet_g5v0d10v5 ad=0p pd=0u as=0p ps=0u w=3e+07u l=500000u
X163 SD1R.t92 GR SD2R.t42 SUB sky130_fd_pr__nfet_g5v0d10v5 ad=0p pd=0u as=0p ps=0u w=3e+07u l=500000u
X164 SD2R.t41 GR SD1R.t31 SUB sky130_fd_pr__nfet_g5v0d10v5 ad=0p pd=0u as=0p ps=0u w=3e+07u l=500000u
X165 SD2L.t33 GL SD1L.t89 SUB sky130_fd_pr__nfet_g5v0d10v5 ad=0p pd=0u as=0p ps=0u w=3e+07u l=500000u
X166 SD2L.t32 GL SD1L.t90 SUB sky130_fd_pr__nfet_g5v0d10v5 ad=0p pd=0u as=0p ps=0u w=3e+07u l=500000u
X167 SD2L.t31 GL SD1L.t91 SUB sky130_fd_pr__nfet_g5v0d10v5 ad=0p pd=0u as=0p ps=0u w=3e+07u l=500000u
X168 SD1L.t48 GL SD2L.t30 SUB sky130_fd_pr__nfet_g5v0d10v5 ad=0p pd=0u as=0p ps=0u w=3e+07u l=500000u
X169 SD1R.t12 GR SD2R.t40 SUB sky130_fd_pr__nfet_g5v0d10v5 ad=0p pd=0u as=0p ps=0u w=3e+07u l=500000u
X170 SD2L.t29 GL SD1L.t92 SUB sky130_fd_pr__nfet_g5v0d10v5 ad=0p pd=0u as=0p ps=0u w=3e+07u l=500000u
X171 SD1L.t94 GL SD2L.t28 SUB sky130_fd_pr__nfet_g5v0d10v5 ad=0p pd=0u as=0p ps=0u w=3e+07u l=500000u
X172 SD1R.t117 GR SD2R.t39 SUB sky130_fd_pr__nfet_g5v0d10v5 ad=0p pd=0u as=0p ps=0u w=3e+07u l=500000u
X173 SD1R.t79 GR SD2R.t38 SUB sky130_fd_pr__nfet_g5v0d10v5 ad=0p pd=0u as=0p ps=0u w=3e+07u l=500000u
X174 SD1L.t97 GL SD2L.t27 SUB sky130_fd_pr__nfet_g5v0d10v5 ad=0p pd=0u as=0p ps=0u w=3e+07u l=500000u
X175 SD1L.t96 GL SD2L.t26 SUB sky130_fd_pr__nfet_g5v0d10v5 ad=0p pd=0u as=0p ps=0u w=3e+07u l=500000u
X176 SD1R.t13 GR SD2R.t37 SUB sky130_fd_pr__nfet_g5v0d10v5 ad=0p pd=0u as=0p ps=0u w=3e+07u l=500000u
X177 SD1R.t15 GR SD2R.t36 SUB sky130_fd_pr__nfet_g5v0d10v5 ad=0p pd=0u as=0p ps=0u w=3e+07u l=500000u
X178 SD2L.t25 GL SD1L.t101 SUB sky130_fd_pr__nfet_g5v0d10v5 ad=0p pd=0u as=0p ps=0u w=3e+07u l=500000u
X179 SD1R.t101 GR SD2R.t35 SUB sky130_fd_pr__nfet_g5v0d10v5 ad=0p pd=0u as=0p ps=0u w=3e+07u l=500000u
X180 SD2L.t24 GL SD1L.t104 SUB sky130_fd_pr__nfet_g5v0d10v5 ad=0p pd=0u as=0p ps=0u w=3e+07u l=500000u
X181 SD1L.t103 GL SD2L.t23 SUB sky130_fd_pr__nfet_g5v0d10v5 ad=0p pd=0u as=0p ps=0u w=3e+07u l=500000u
X182 SD1L.t95 GL SD2L.t22 SUB sky130_fd_pr__nfet_g5v0d10v5 ad=0p pd=0u as=0p ps=0u w=3e+07u l=500000u
X183 SD2R.t34 GR SD1R.t64 SUB sky130_fd_pr__nfet_g5v0d10v5 ad=0p pd=0u as=0p ps=0u w=3e+07u l=500000u
X184 SD1R.t21 GR SD2R.t33 SUB sky130_fd_pr__nfet_g5v0d10v5 ad=0p pd=0u as=0p ps=0u w=3e+07u l=500000u
X185 SD2L.t21 GL SD1L.t102 SUB sky130_fd_pr__nfet_g5v0d10v5 ad=0p pd=0u as=0p ps=0u w=3e+07u l=500000u
X186 SD1R.t38 GR SD2R.t32 SUB sky130_fd_pr__nfet_g5v0d10v5 ad=0p pd=0u as=0p ps=0u w=3e+07u l=500000u
X187 SD1L.t119 GL SD2L.t20 SUB sky130_fd_pr__nfet_g5v0d10v5 ad=0p pd=0u as=0p ps=0u w=3e+07u l=500000u
X188 SD1R.t45 GR SD2R.t31 SUB sky130_fd_pr__nfet_g5v0d10v5 ad=0p pd=0u as=0p ps=0u w=3e+07u l=500000u
X189 SD1L.t107 GL SD2L.t19 SUB sky130_fd_pr__nfet_g5v0d10v5 ad=0p pd=0u as=0p ps=0u w=3e+07u l=500000u
X190 SD2R.t30 GR SD1R.t109 SUB sky130_fd_pr__nfet_g5v0d10v5 ad=0p pd=0u as=0p ps=0u w=3e+07u l=500000u
X191 SD2R.t29 GR SD1R.t39 SUB sky130_fd_pr__nfet_g5v0d10v5 ad=0p pd=0u as=0p ps=0u w=3e+07u l=500000u
X192 SD1R.t118 GR SD2R.t28 SUB sky130_fd_pr__nfet_g5v0d10v5 ad=0p pd=0u as=0p ps=0u w=3e+07u l=500000u
X193 SD1L.t42 GL SD2L.t18 SUB sky130_fd_pr__nfet_g5v0d10v5 ad=0p pd=0u as=0p ps=0u w=3e+07u l=500000u
X194 SD2R.t27 GR SD1R.t26 SUB sky130_fd_pr__nfet_g5v0d10v5 ad=0p pd=0u as=0p ps=0u w=3e+07u l=500000u
X195 SD2R.t26 GR SD1R.t46 SUB sky130_fd_pr__nfet_g5v0d10v5 ad=0p pd=0u as=0p ps=0u w=3e+07u l=500000u
X196 SD1R.t80 GR SD2R.t25 SUB sky130_fd_pr__nfet_g5v0d10v5 ad=0p pd=0u as=0p ps=0u w=3e+07u l=500000u
X197 SD2L.t17 GL SD1L.t14 SUB sky130_fd_pr__nfet_g5v0d10v5 ad=0p pd=0u as=0p ps=0u w=3e+07u l=500000u
X198 SD1L.t25 GL SD2L.t16 SUB sky130_fd_pr__nfet_g5v0d10v5 ad=0p pd=0u as=0p ps=0u w=3e+07u l=500000u
X199 SD2R.t24 GR SD1R.t102 SUB sky130_fd_pr__nfet_g5v0d10v5 ad=0p pd=0u as=0p ps=0u w=3e+07u l=500000u
X200 SD2R.t23 GR SD1R.t65 SUB sky130_fd_pr__nfet_g5v0d10v5 ad=0p pd=0u as=0p ps=0u w=3e+07u l=500000u
X201 SD2R.t22 GR SD1R.t110 SUB sky130_fd_pr__nfet_g5v0d10v5 ad=0p pd=0u as=0p ps=0u w=3e+07u l=500000u
X202 SD1L.t43 GL SD2L.t15 SUB sky130_fd_pr__nfet_g5v0d10v5 ad=0p pd=0u as=0p ps=0u w=3e+07u l=500000u
X203 SD1R.t22 GR SD2R.t21 SUB sky130_fd_pr__nfet_g5v0d10v5 ad=0p pd=0u as=0p ps=0u w=3e+07u l=500000u
X204 SD1L.t3 GL SD2L.t14 SUB sky130_fd_pr__nfet_g5v0d10v5 ad=0p pd=0u as=0p ps=0u w=3e+07u l=500000u
X205 SD1R.t40 GR SD2R.t20 SUB sky130_fd_pr__nfet_g5v0d10v5 ad=0p pd=0u as=0p ps=0u w=3e+07u l=500000u
X206 SD1R.t119 GR SD2R.t19 SUB sky130_fd_pr__nfet_g5v0d10v5 ad=0p pd=0u as=0p ps=0u w=3e+07u l=500000u
X207 SD2R.t18 GR SD1R.t47 SUB sky130_fd_pr__nfet_g5v0d10v5 ad=0p pd=0u as=0p ps=0u w=3e+07u l=500000u
X208 SD1R.t81 GR SD2R.t17 SUB sky130_fd_pr__nfet_g5v0d10v5 ad=0p pd=0u as=0p ps=0u w=3e+07u l=500000u
X209 SD2R.t16 GR SD1R.t103 SUB sky130_fd_pr__nfet_g5v0d10v5 ad=0p pd=0u as=0p ps=0u w=3e+07u l=500000u
X210 SD1R.t66 GR SD2R.t15 SUB sky130_fd_pr__nfet_g5v0d10v5 ad=0p pd=0u as=0p ps=0u w=3e+07u l=500000u
X211 SD1R.t111 GR SD2R.t14 SUB sky130_fd_pr__nfet_g5v0d10v5 ad=0p pd=0u as=0p ps=0u w=3e+07u l=500000u
X212 SD2R.t13 GR SD1R.t23 SUB sky130_fd_pr__nfet_g5v0d10v5 ad=0p pd=0u as=0p ps=0u w=3e+07u l=500000u
X213 SD1L.t15 GL SD2L.t13 SUB sky130_fd_pr__nfet_g5v0d10v5 ad=0p pd=0u as=0p ps=0u w=3e+07u l=500000u
X214 SD1R.t4 GR SD2R.t12 SUB sky130_fd_pr__nfet_g5v0d10v5 ad=0p pd=0u as=0p ps=0u w=3e+07u l=500000u
X215 SD2R.t11 GR SD1R.t67 SUB sky130_fd_pr__nfet_g5v0d10v5 ad=0p pd=0u as=0p ps=0u w=3e+07u l=500000u
X216 SD2R.t10 GR SD1R.t24 SUB sky130_fd_pr__nfet_g5v0d10v5 ad=0p pd=0u as=0p ps=0u w=3e+07u l=500000u
X217 SD1R.t50 GR SD2R.t9 SUB sky130_fd_pr__nfet_g5v0d10v5 ad=0p pd=0u as=0p ps=0u w=3e+07u l=500000u
X218 SD2L.t12 GL SD1L.t12 SUB sky130_fd_pr__nfet_g5v0d10v5 ad=0p pd=0u as=0p ps=0u w=3e+07u l=500000u
X219 SD1L.t26 GL SD2L.t11 SUB sky130_fd_pr__nfet_g5v0d10v5 ad=0p pd=0u as=0p ps=0u w=3e+07u l=500000u
X220 SD2L.t10 GL SD1L.t41 SUB sky130_fd_pr__nfet_g5v0d10v5 ad=0p pd=0u as=0p ps=0u w=3e+07u l=500000u
X221 SD1L.t24 GL SD2L.t9 SUB sky130_fd_pr__nfet_g5v0d10v5 ad=0p pd=0u as=0p ps=0u w=3e+07u l=500000u
X222 SD1R.t17 GR SD2R.t8 SUB sky130_fd_pr__nfet_g5v0d10v5 ad=0p pd=0u as=0p ps=0u w=3e+07u l=500000u
X223 SD2L.t8 GL SD1L.t44 SUB sky130_fd_pr__nfet_g5v0d10v5 ad=0p pd=0u as=0p ps=0u w=3e+07u l=500000u
X224 SD2L.t7 GL SD1L.t10 SUB sky130_fd_pr__nfet_g5v0d10v5 ad=0p pd=0u as=0p ps=0u w=3e+07u l=500000u
X225 SD1L.t40 GL SD2L.t6 SUB sky130_fd_pr__nfet_g5v0d10v5 ad=0p pd=0u as=0p ps=0u w=3e+07u l=500000u
X226 SD1R.t68 GR SD2R.t7 SUB sky130_fd_pr__nfet_g5v0d10v5 ad=0p pd=0u as=0p ps=0u w=3e+07u l=500000u
X227 SD1L.t45 GL SD2L.t5 SUB sky130_fd_pr__nfet_g5v0d10v5 ad=0p pd=0u as=0p ps=0u w=3e+07u l=500000u
X228 SD2R.t6 GR SD1R.t27 SUB sky130_fd_pr__nfet_g5v0d10v5 ad=0p pd=0u as=0p ps=0u w=3e+07u l=500000u
X229 SD1R.t51 GR SD2R.t5 SUB sky130_fd_pr__nfet_g5v0d10v5 ad=0p pd=0u as=0p ps=0u w=3e+07u l=500000u
X230 SD2R.t4 GR SD1R.t18 SUB sky130_fd_pr__nfet_g5v0d10v5 ad=0p pd=0u as=0p ps=0u w=3e+07u l=500000u
X231 SD1L.t4 GL SD2L.t4 SUB sky130_fd_pr__nfet_g5v0d10v5 ad=0p pd=0u as=0p ps=0u w=3e+07u l=500000u
X232 SD1R.t69 GR SD2R.t3 SUB sky130_fd_pr__nfet_g5v0d10v5 ad=0p pd=0u as=0p ps=0u w=3e+07u l=500000u
X233 SD2L.t3 GL SD1L.t39 SUB sky130_fd_pr__nfet_g5v0d10v5 ad=0p pd=0u as=0p ps=0u w=3e+07u l=500000u
X234 SD1L.t16 GL SD2L.t2 SUB sky130_fd_pr__nfet_g5v0d10v5 ad=0p pd=0u as=0p ps=0u w=3e+07u l=500000u
X235 SD1R.t28 GR SD2R.t2 SUB sky130_fd_pr__nfet_g5v0d10v5 ad=0p pd=0u as=0p ps=0u w=3e+07u l=500000u
X236 SD2R.t1 GR SD1R.t87 SUB sky130_fd_pr__nfet_g5v0d10v5 ad=0p pd=0u as=0p ps=0u w=3e+07u l=500000u
X237 SD1R.t88 GR SD2R.t0 SUB sky130_fd_pr__nfet_g5v0d10v5 ad=0p pd=0u as=0p ps=0u w=3e+07u l=500000u
X238 SD2L.t1 GL SD1L.t11 SUB sky130_fd_pr__nfet_g5v0d10v5 ad=0p pd=0u as=0p ps=0u w=3e+07u l=500000u
X239 SD2L.t0 GL SD1L.t9 SUB sky130_fd_pr__nfet_g5v0d10v5 ad=0p pd=0u as=0p ps=0u w=3e+07u l=500000u
C0 SD1L SD1R 68.17fF
C1 GR SD2L 15.75fF
C2 SD1R GL 13.75fF
C3 SD1R SD2R 832.35fF
C4 SD1L GL 97.85fF
C5 SD1L SD2R 39.99fF
C6 SD2R GL 16.59fF
C7 m4_11500_n11600# SD2L 2.89fF
C8 SD1R GR 93.48fF
C9 SD1L GR 16.95fF
C10 GR GL 28.25fF
C11 SD2R GR 99.27fF
C12 SD1R SD2L 34.60fF
C13 SD1L SD2L 832.59fF
C14 SD2L GL 97.33fF
C15 SD2R SD2L 57.01fF
R0 SD1L.n13 SD1L.t53 1.972
R1 SD1L.n0 SD1L.t5 1.972
R2 SD1L.n8 SD1L.t42 1.972
R3 SD1L.n6 SD1L.t44 1.972
R4 SD1L.n4 SD1L.n39 1.435
R5 SD1L.n2 SD1L.n28 1.435
R6 SD1L.n11 SD1L.n29 1.428
R7 SD1L.n11 SD1L.n30 1.428
R8 SD1L.n10 SD1L.n31 1.428
R9 SD1L.n10 SD1L.n32 1.428
R10 SD1L.n5 SD1L.n33 1.428
R11 SD1L.n5 SD1L.n34 1.428
R12 SD1L.n5 SD1L.n35 1.428
R13 SD1L.n5 SD1L.n36 1.428
R14 SD1L.n4 SD1L.n37 1.428
R15 SD1L.n4 SD1L.n38 1.428
R16 SD1L.n9 SD1L.n18 1.428
R17 SD1L.n9 SD1L.n19 1.428
R18 SD1L.n9 SD1L.n20 1.428
R19 SD1L.n3 SD1L.n21 1.428
R20 SD1L.n3 SD1L.n22 1.428
R21 SD1L.n3 SD1L.n23 1.428
R22 SD1L.n3 SD1L.n24 1.428
R23 SD1L.n2 SD1L.n25 1.428
R24 SD1L.n2 SD1L.n26 1.428
R25 SD1L.n2 SD1L.n27 1.428
R26 SD1L.n1 SD1L.n62 1.414
R27 SD1L.n12 SD1L.n63 1.414
R28 SD1L.n12 SD1L.n64 1.414
R29 SD1L.n13 SD1L.n65 1.414
R30 SD1L.n13 SD1L.n66 1.414
R31 SD1L.n0 SD1L.n72 1.414
R32 SD1L.n0 SD1L.n71 1.414
R33 SD1L.n1 SD1L.n70 1.414
R34 SD1L.n1 SD1L.n69 1.414
R35 SD1L.n1 SD1L.n68 1.414
R36 SD1L.n7 SD1L.n49 1.414
R37 SD1L.n7 SD1L.n50 1.414
R38 SD1L.n8 SD1L.n51 1.414
R39 SD1L.n8 SD1L.n52 1.414
R40 SD1L.n8 SD1L.n53 1.414
R41 SD1L.n6 SD1L.n48 1.414
R42 SD1L.n6 SD1L.n47 1.414
R43 SD1L.n7 SD1L.n46 1.414
R44 SD1L.n7 SD1L.n45 1.414
R45 SD1L.n7 SD1L.n44 1.414
R46 SD1L.n7 SD1L.n57 1.412
R47 SD1L.n7 SD1L.n56 1.412
R48 SD1L.n7 SD1L.n55 1.412
R49 SD1L.n7 SD1L.n54 1.412
R50 SD1L.n1 SD1L.n59 1.412
R51 SD1L.n1 SD1L.n60 1.412
R52 SD1L.n1 SD1L.n61 1.412
R53 SD1L.n1 SD1L.n67 1.41
R54 SD1L.n11 SD1L.n40 1.281
R55 SD1L.n11 SD1L.n41 1.28
R56 SD1L.n11 SD1L.n42 1.28
R57 SD1L.n11 SD1L.n43 1.28
R58 SD1L.n9 SD1L.n16 1.279
R59 SD1L.n9 SD1L.n15 1.279
R60 SD1L.n9 SD1L.n14 1.279
R61 SD1L.n9 SD1L.n17 1.278
R62 SD1L.n62 SD1L.t92 0.551
R63 SD1L.n62 SD1L.t70 0.551
R64 SD1L.n63 SD1L.t72 0.551
R65 SD1L.n63 SD1L.t19 0.551
R66 SD1L.n64 SD1L.t12 0.551
R67 SD1L.n64 SD1L.t71 0.551
R68 SD1L.n65 SD1L.t1 0.551
R69 SD1L.n65 SD1L.t13 0.551
R70 SD1L.n66 SD1L.t10 0.551
R71 SD1L.n66 SD1L.t118 0.551
R72 SD1L.n72 SD1L.t117 0.551
R73 SD1L.n72 SD1L.t69 0.551
R74 SD1L.n71 SD1L.t9 0.551
R75 SD1L.n71 SD1L.t45 0.551
R76 SD1L.n70 SD1L.t87 0.551
R77 SD1L.n70 SD1L.t83 0.551
R78 SD1L.n69 SD1L.t115 0.551
R79 SD1L.n69 SD1L.t4 0.551
R80 SD1L.n68 SD1L.t68 0.551
R81 SD1L.n68 SD1L.t61 0.551
R82 SD1L.n61 SD1L.t111 0.551
R83 SD1L.n61 SD1L.t100 0.551
R84 SD1L.n60 SD1L.t90 0.551
R85 SD1L.n60 SD1L.t51 0.551
R86 SD1L.n59 SD1L.t11 0.551
R87 SD1L.n59 SD1L.t21 0.551
R88 SD1L.n49 SD1L.t52 0.551
R89 SD1L.n49 SD1L.t33 0.551
R90 SD1L.n50 SD1L.t39 0.551
R91 SD1L.n50 SD1L.t48 0.551
R92 SD1L.n51 SD1L.t62 0.551
R93 SD1L.n51 SD1L.t29 0.551
R94 SD1L.n52 SD1L.t17 0.551
R95 SD1L.n52 SD1L.t94 0.551
R96 SD1L.n53 SD1L.t116 0.551
R97 SD1L.n53 SD1L.t93 0.551
R98 SD1L.n48 SD1L.t58 0.551
R99 SD1L.n48 SD1L.t16 0.551
R100 SD1L.n47 SD1L.t89 0.551
R101 SD1L.n47 SD1L.t84 0.551
R102 SD1L.n46 SD1L.t59 0.551
R103 SD1L.n46 SD1L.t55 0.551
R104 SD1L.n45 SD1L.t14 0.551
R105 SD1L.n45 SD1L.t119 0.551
R106 SD1L.n44 SD1L.t101 0.551
R107 SD1L.n44 SD1L.t99 0.551
R108 SD1L.n54 SD1L.t80 0.551
R109 SD1L.n54 SD1L.t74 0.551
R110 SD1L.n55 SD1L.t73 0.551
R111 SD1L.n55 SD1L.t15 0.551
R112 SD1L.n56 SD1L.t79 0.551
R113 SD1L.n56 SD1L.t30 0.551
R114 SD1L.n57 SD1L.t38 0.551
R115 SD1L.n57 SD1L.t107 0.551
R116 SD1L.n29 SD1L.t47 0.551
R117 SD1L.n29 SD1L.t24 0.551
R118 SD1L.n30 SD1L.t41 0.551
R119 SD1L.n30 SD1L.t110 0.551
R120 SD1L.n31 SD1L.t49 0.551
R121 SD1L.n31 SD1L.t96 0.551
R122 SD1L.n32 SD1L.t67 0.551
R123 SD1L.n32 SD1L.t78 0.551
R124 SD1L.n33 SD1L.t77 0.551
R125 SD1L.n33 SD1L.t114 0.551
R126 SD1L.n34 SD1L.t18 0.551
R127 SD1L.n34 SD1L.t28 0.551
R128 SD1L.n35 SD1L.t35 0.551
R129 SD1L.n35 SD1L.t27 0.551
R130 SD1L.n36 SD1L.t22 0.551
R131 SD1L.n36 SD1L.t98 0.551
R132 SD1L.n37 SD1L.t88 0.551
R133 SD1L.n37 SD1L.t43 0.551
R134 SD1L.n38 SD1L.t106 0.551
R135 SD1L.n38 SD1L.t95 0.551
R136 SD1L.n39 SD1L.t91 0.551
R137 SD1L.n39 SD1L.t82 0.551
R138 SD1L.n40 SD1L.t31 0.551
R139 SD1L.n40 SD1L.t113 0.551
R140 SD1L.n41 SD1L.t8 0.551
R141 SD1L.n41 SD1L.t60 0.551
R142 SD1L.n42 SD1L.t75 0.551
R143 SD1L.n42 SD1L.t20 0.551
R144 SD1L.n43 SD1L.t65 0.551
R145 SD1L.n43 SD1L.t81 0.551
R146 SD1L.n17 SD1L.t63 0.551
R147 SD1L.n17 SD1L.t2 0.551
R148 SD1L.n16 SD1L.t54 0.551
R149 SD1L.n16 SD1L.t6 0.551
R150 SD1L.n15 SD1L.t37 0.551
R151 SD1L.n15 SD1L.t36 0.551
R152 SD1L.n14 SD1L.t108 0.551
R153 SD1L.n14 SD1L.t46 0.551
R154 SD1L.n18 SD1L.t104 0.551
R155 SD1L.n18 SD1L.t26 0.551
R156 SD1L.n19 SD1L.t85 0.551
R157 SD1L.n19 SD1L.t3 0.551
R158 SD1L.n20 SD1L.t7 0.551
R159 SD1L.n20 SD1L.t97 0.551
R160 SD1L.n21 SD1L.t66 0.551
R161 SD1L.n21 SD1L.t76 0.551
R162 SD1L.n22 SD1L.t56 0.551
R163 SD1L.n22 SD1L.t105 0.551
R164 SD1L.n23 SD1L.t50 0.551
R165 SD1L.n23 SD1L.t23 0.551
R166 SD1L.n24 SD1L.t34 0.551
R167 SD1L.n24 SD1L.t32 0.551
R168 SD1L.n25 SD1L.t102 0.551
R169 SD1L.n25 SD1L.t40 0.551
R170 SD1L.n26 SD1L.t86 0.551
R171 SD1L.n26 SD1L.t25 0.551
R172 SD1L.n27 SD1L.t109 0.551
R173 SD1L.n27 SD1L.t103 0.551
R174 SD1L.n28 SD1L.t64 0.551
R175 SD1L.n28 SD1L.t57 0.551
R176 SD1L.n67 SD1L.t0 0.551
R177 SD1L.n67 SD1L.t112 0.551
R178 SD1L.n58 SD1L.n7 0.523
R179 SD1L.n73 SD1L.n1 0.392
R180 SD1L.n74 SD1L.n73 0.099
R181 SD1L.n58 SD1L.n11 0.078
R182 SD1L.n74 SD1L.n9 0.078
R183 SD1L.n73 SD1L.n58 0.07