* NGSPICE file created from sky130_fd_pr__rf_nfet_01v8_bM04W5p00L0p15.ext - technology: sky130A

.subckt sky130_fd_pr__rf_nfet_01v8_bM04W5p00L0p15 DRAIN GATE SOURCE SUBSTRATE
X0 DRAIN GATE SOURCE SUBSTRATE sky130_fd_pr__nfet_01v8 ad=2.828e+12p pd=2.132e+07u as=4.242e+12p ps=3.198e+07u w=5.05e+06u l=150000u
X1 SOURCE SUBSTRATE SUBSTRATE SUBSTRATE sky130_fd_pr__nfet_01v8 ad=0p pd=0u as=3.03e+12p ps=2.14e+07u w=5.05e+06u l=150000u
X2 SOURCE GATE DRAIN SUBSTRATE sky130_fd_pr__nfet_01v8 ad=0p pd=0u as=0p ps=0u w=5.05e+06u l=150000u
X3 DRAIN GATE SOURCE SUBSTRATE sky130_fd_pr__nfet_01v8 ad=0p pd=0u as=0p ps=0u w=5.05e+06u l=150000u
X4 SUBSTRATE SUBSTRATE SOURCE SUBSTRATE sky130_fd_pr__nfet_01v8 ad=0p pd=0u as=0p ps=0u w=5.05e+06u l=150000u
X5 SOURCE GATE DRAIN SUBSTRATE sky130_fd_pr__nfet_01v8 ad=0p pd=0u as=0p ps=0u w=5.05e+06u l=150000u
.ends

