v {xschem version=3.0.0 file_version=1.2 }
G {}
K {}
V {}
S {}
E {}
C {devices/code.sym} 2790 -1990 0 0 {name=TT_MODELS only_toplevel=false
format="tcleval(@value )" value=".lib \\\\$::SKYWATER_MODELS\\\\/sky130.lib.spice ff
* .include \\\\$::PDKPATH\\\\/libs.ref/sky130_fd_sc_hvl/spice/sky130_fd_sc_hvl.spice
"}
C {devices/code_shown.sym} 2800 -1690 0 0 {name=s2 only_toplevel=false value="
.subckt sky130_fd_pr__rf_nfet_01v8_bM04W5p00L0p15_ext DRAIN GATE SOURCE SUBSTRATE
X0 DRAIN GATE SOURCE SUBSTRATE sky130_fd_pr__nfet_01v8 ad=2.828e+12p pd=2.132e+07u as=4.242e+12p ps=3.198e+07u w=5.05e+06u l=150000u
X1 SOURCE SUBSTRATE SUBSTRATE SUBSTRATE sky130_fd_pr__nfet_01v8 ad=0p pd=0u as=3.03e+12p ps=2.14e+07u w=5.05e+06u l=150000u
X2 SOURCE GATE DRAIN SUBSTRATE sky130_fd_pr__nfet_01v8 ad=0p pd=0u as=0p ps=0u w=5.05e+06u l=150000u
X3 DRAIN GATE SOURCE SUBSTRATE sky130_fd_pr__nfet_01v8 ad=0p pd=0u as=0p ps=0u w=5.05e+06u l=150000u
X4 SUBSTRATE SUBSTRATE SOURCE SUBSTRATE sky130_fd_pr__nfet_01v8 ad=0p pd=0u as=0p ps=0u w=5.05e+06u l=150000u
X5 SOURCE GATE DRAIN SUBSTRATE sky130_fd_pr__nfet_01v8 ad=0p pd=0u as=0p ps=0u w=5.05e+06u l=150000u
.ends
.options savecurrents
.tran 1ps 20ns
.control
run
display
plot v(nop)
plot v(nmid)
plot @I1[i]
.endc
"}
